* PSpice Model Editor - Version 22.1.0
*$
*BeginSpec
*IF: (1,1.0000E-15) (1.7500,1.0000E-12) (2,5.0000E-3) (2.2000,15.000E-3) (2.3000,25.000E-3) (2.6000,50.000E-3)
*JC:
*RL: (1,0) (25,300.00E-12) (50,400.00E-12) (75,500.00E-12) (100,550.00E-12)
*RB: Vz=100 Iz=1.0000E3 Zz=100
*RR: Trr=0 Ifwd=10.000E-3 Irev=10.000E-3 Rl=100
*EndSpec

*BeginTrace
*IF: 1,0,.4,2.8000,1,3,0,0,-1 (27)
*JC: 0,1,.1,10,1,3,0,0,-1 (27)
*RL: 0,0,1,100,1,3,0,0,-1 (27)
*RB: 0,1,100.00E-6,1,1,3,0,0,-1 (27)
*RR: 0,0,-5.0000E-9,20.000E-9,1,3,0,0,-1 (27)
*EndTrace

*BeginParam
*IS=10.010E-21 (10.000E-21,.1,0)
*N=2.1653 (.2,5,0)
*RS=1.2036 (1.0000E-6,100,0)
*IKF=107.23 (0,1.0000E3,0)
*XTI=3 (-100,100,0)
*EG=1.1100 (.1,5.5100,0)
*CJO=1.0000E-12 (10.000E-21,1.0000E-3,0)
*M=.3333 (.1,10,0)
*VJ=.75 (.3905,10,0)
*FC=.5 (1.0000E-3,10,0)
*ISR=100.87E-12 (10.000E-21,.1,0)
*NR=4.9950 (.5,5,0)
*BV=.1 (.1,1.0000E6,0)
*IBV=261.79E-9 (1.0000E-9,10,0)
*TT=5.0000E-9 (100.00E-18,1.0000E-3,0)
*EndParam

*DEVICE=GreenLED,D

* GreenLED D model
* updated using Model Editor release 22.1.0 on 04/16/24 at 20:56
* The Model Editor is a PSpice product.
.MODEL GreenLED D
+ IS=10.010E-21
+ N=2.1653
+ RS=1.2036
+ IKF=107.23
+ CJO=1.0000E-12
+ M=.3333
+ VJ=.75
+ ISR=100.87E-12
+ NR=4.9950
+ BV=.1
+ IBV=261.79E-9
+ TT=5.0000E-9
*$
